SUBDIRS = src test

ACLOCAL_AMFLAGS = -I m4

FC=@FC@
F90MODTYPE=@F90MODTYPE@
MODEXT=@MODEXT@
MODPATHFLAG=@MODPATHFLAG@
SYSFCFLAGS=@SYSFFLAGS@ 
SYSLDFLAGS=@SYSLDFLAGS@
SYSLDLIBS=@SYSLDLIBS@

SYSCXXFLAGS=@SYSCXXFLAGS@

#dist-hook:
#	sh $(top_srcdir)/dist_tool/generate-ChangeLog.sh       
